ID MODAL ANALYSIS
SOL 3
CEND
MAXLINES=999999999
METHOD = 1
VECTOR(PUNCH) = ALL
BEGIN BULK

EIGR,1,FEER,0.1,,,10,,,
,MAX

PARAM,AUTOSPC,1
PARAM,GRDPNT,0
PARAM,COUPMASS,1
PARAM,WTMASS,0.001

MAT1,30,72000.,,0.33,2.7E-6

$Shell Properties
PSHELL,1,30,50.,30,,30
PSHELL,2,30,11.,30,,30
PSHELL,3,30,10.,30,,30
PSHELL,4,30,10.,30,,30
PSHELL,5,30,10.,30,,30
PSHELL,6,30,10.,30,,30

$CQUAD4 Elements
CQUAD4,250,1,1,24,210,84
CQUAD4,251,1,84,210,211,83
CQUAD4,252,1,83,211,212,82
CQUAD4,253,1,82,212,213,81
CQUAD4,254,1,81,213,214,80
CQUAD4,255,1,80,214,215,79
CQUAD4,256,1,79,215,216,78
CQUAD4,257,1,78,216,217,77
CQUAD4,258,1,77,217,218,76
CQUAD4,259,1,76,218,219,75
CQUAD4,260,1,75,219,220,74
CQUAD4,261,1,74,220,221,73
CQUAD4,262,1,73,221,222,72
CQUAD4,263,1,72,222,223,71
CQUAD4,264,1,71,223,224,70
CQUAD4,265,1,70,224,225,69
CQUAD4,266,1,69,225,226,68
CQUAD4,267,1,68,226,227,67
CQUAD4,268,1,67,227,228,66
CQUAD4,269,1,66,228,229,65
$ ... 210 like lines cut

$CONM2 Elements
CONM2,10001,190,,0.5
CONM2,10002,268,,0.2
CONM2,10003,303,,0.2

$Grid Points
GRID,1,0,0.00E+00,0.00E+00,0.00E+00
GRID,2,0,0.00E+00,0.00E+00,150.0000
GRID,3,0,1500.000,0.00E+00,0.00E+00
GRID,4,0,1500.000,0.00E+00,150.0000
GRID,5,0,650.0000,1000.000,150.0000
GRID,6,0,550.0000,1000.000,150.0000
GRID,7,0,550.0000,-1000.00,150.0000
GRID,8,0,650.0000,-1000.00,150.0000
GRID,9,0,800.0000,1000.000,150.0000
GRID,10,0,400.0000,1000.000,150.0000
GRID,11,0,400.0000,900.0000,150.0000
GRID,12,0,800.0000,900.0000,150.0000
GRID,13,0,800.0000,-900.000,150.0000
GRID,14,0,400.0000,-900.000,150.0000
GRID,15,0,400.0000,-1000.00,150.0000
GRID,16,0,800.0000,-1000.00,150.0000
GRID,17,0,1400.000,0.00E+00,150.0000
GRID,18,0,1400.000,0.00E+00,450.0000
GRID,19,0,1500.000,0.00E+00,450.0000
GRID,20,0,1400.000,200.0000,450.0000
$ ... 302 like lines cut

ENDDATA