





                                  ****
                                *      *
                               *        *
                               *  N A S T R A N
                               *        *
                                *      *
                                  ****


                            INTEL COMPUTER SYSTEMS   
                                 LINUX VERSION 

                          SYSTEM RELEASE -  1995 ED.

                                DISTRIBUTED BY

         COMPUTER SOFTWARE MANAGEMENT AND INFORMATION CENTER (COSMIC)
                 UNIVERSITY OF GEORGIA, ATHENS, GEORGIA 30602
                 PHONE: (706)542-3265      FAX: (706)542-4807
1                                                                           /    95 INTEL LINUX NASTRAN    / JUN 17, 18 / PAGE     2
                                                                                                                                    
0                                                                                                                                   
                                                                                                         
                                                                                                         
                         INSTALLATION CENTER USER INFORMATION GIVEN IN THIS SECTION                      
                                                                                                         
                                     *********************************************                       
                                     *                                           *                       
                                     *  PLEASE READ THE COMMENT IN DEMO PROBLEM  *                       
                                     *  D01002A ABOUT SYSTEM TIMING CONSTANTS    *                       
                                     *                                           *                       
                                     *********************************************                       
                                                                                                         
                         ===X=    TOP OF PAGE REQUEST IF 'X' IS REPLACED BY '='                          
                                                                                                         
1                                                                           /    95 INTEL LINUX NASTRAN    / JUN 17, 18 / PAGE     3
                                                                                                                                    
0                                                                                                                                   
0*** USER INFORMATION MESSAGE 225, GINO TIME CONSTANTS ARE BEING COMPUTED
     (SEE NASINFO FILE FOR ELIMINATION OF THESE COMPUTATIONS)
1                                                                           /    95 INTEL LINUX NASTRAN    / JUN 17, 18 / PAGE     4
                                                                                                                                    
0        N A S T R A N    E X E C U T I V E    C O N T R O L    D E C K    E C H O                                                  
0                                                                                                                                   
                                                                                                                                    
                                                                                                                                    
     ID MODAL ANALYSIS                                                               
     SOL 3                                                                           
     CEND                                                                            
0*** APP  DECLARATION CARD MISSING.  DISPLACEMENT IS SELECTED BY DEFAULT
0*** TIME  CARD MISSING. MAXIMUM EXECUTION TIME IS SET TO 5 MINUTES BY DEFAULT
1                                                                           /    95 INTEL LINUX NASTRAN    / JUN 17, 18 / PAGE     5
                                                                                                                                    
0                                                                                                                                   
0                                        C A S E    C O N T R O L   D E C K   E C H O                                               
                 CARD                                                                                                               
                 COUNT                                                                                                              
                  1      MAXLINES=999999999                                                              
                  2      METHOD = 1                                                                      
                  3      VECTOR(PUNCH) = ALL                                                             
                  4      BEGIN BULK                                                                      


                        (NO. OF UNSORTED BULK DATA CARDS READ =   580, INCLUDING   7 COMMENT CARDS)
0*** USER INFORMATION MESSAGE 207, BULK DATA DECK IS NOT SORTED. NASTRAN WILL RE-ORDER THE INPUT DECK.
1                                                                           /    95 INTEL LINUX NASTRAN    / JUN 17, 18 / PAGE     6
                                                                                                                                    
0                                                                                                                                   
0                                                 S O R T E D   B U L K    D A T A    E C H O                                       
                     CARD                                                                                                           
                     COUNT        ---1--- +++2+++ ---3--- +++4+++ ---5--- +++6+++ ---7--- +++8+++ ---9--- +++10+++                  
                    1-        CONM2   10001   190             0.5                                             
                    2-        CONM2   10002   268             0.2                                             
                    3-        CONM2   10003   303             0.2                                             
                    4-        CQUAD4  250     1       1       24      210     84                              
                    5-        CQUAD4  251     1       84      210     211     83                              
                    6-        CQUAD4  252     1       83      211     212     82                              
                    7-        CQUAD4  253     1       82      212     213     81                              
                    8-        CQUAD4  254     1       81      213     214     80                              
                    9-        CQUAD4  255     1       80      214     215     79                              
                   10-        CQUAD4  256     1       79      215     216     78                              
                   11-        CQUAD4  257     1       78      216     217     77                              
                   12-        CQUAD4  258     1       77      217     218     76                              
                   13-        CQUAD4  259     1       76      218     219     75                              
                   14-        CQUAD4  260     1       75      219     220     74                              
                   15-        CQUAD4  261     1       74      220     221     73                              
                   16-        CQUAD4  262     1       73      221     222     72                              
                   17-        CQUAD4  263     1       72      222     223     71                              
                   18-        CQUAD4  264     1       71      223     224     70                              
                   19-        CQUAD4  265     1       70      224     225     69                              
                   20-        CQUAD4  266     1       69      225     226     68                              
                   21-        CQUAD4  267     1       68      226     227     67                              
                   22-        CQUAD4  268     1       67      227     228     66                              
                   23-        CQUAD4  269     1       66      228     229     65                              
                   24-        CQUAD4  270     1       65      229     230     64                              
                   25-        CQUAD4  271     1       64      230     231     63                              
                   26-        CQUAD4  272     1       63      231     232     62                              
                   27-        CQUAD4  273     1       62      232     233     61                              
                   28-        CQUAD4  274     1       61      233     234     60                              
                   29-        CQUAD4  275     1       60      234     235     59                              
                   30-        CQUAD4  276     1       59      235     236     58                              
                   31-        CQUAD4  277     1       58      236     237     57                              
                   32-        CQUAD4  278     1       57      237     238     56                              
                   33-        CQUAD4  279     1       56      238     55      3                               
                   34-        CQUAD4  280     1       24      25      239     210                             
                   35-        CQUAD4  281     1       210     239     240     211                             
                   36-        CQUAD4  282     1       211     240     241     212                             
                   37-        CQUAD4  283     1       212     241     242     213                             
                   38-        CQUAD4  284     1       213     242     243     214                             
                   39-        CQUAD4  285     1       214     243     244     215                             
                   40-        CQUAD4  286     1       215     244     245     216                             
                   41-        CQUAD4  287     1       216     245     246     217                             
                   42-        CQUAD4  288     1       217     246     247     218                             
                   43-        CQUAD4  289     1       218     247     248     219                             
                   44-        CQUAD4  290     1       219     248     249     220                             
                   45-        CQUAD4  291     1       220     249     250     221                             
                   46-        CQUAD4  292     1       221     250     251     222                             
                   47-        CQUAD4  293     1       222     251     252     223                             
1                                                                           /    95 INTEL LINUX NASTRAN    / JUN 17, 18 / PAGE     7
                                                                                                                                    

                                                                                                                                    

                                                  S O R T E D   B U L K    D A T A    E C H O                                       
                     CARD                                                                                                           
                     COUNT        ---1--- +++2+++ ---3--- +++4+++ ---5--- +++6+++ ---7--- +++8+++ ---9--- +++10+++                  
                   48-        CQUAD4  294     1       223     252     253     224                             
                   49-        CQUAD4  295     1       224     253     254     225                             
                   50-        CQUAD4  296     1       225     254     255     226                             
                   51-        CQUAD4  297     1       226     255     256     227                             
                   52-        CQUAD4  298     1       227     256     257     228                             
                   53-        CQUAD4  299     1       228     257     258     229                             
                   54-        CQUAD4  300     1       229     258     259     230                             
                   55-        CQUAD4  301     1       230     259     260     231                             
                   56-        CQUAD4  302     1       231     260     261     232                             
                   57-        CQUAD4  303     1       232     261     262     233                             
                   58-        CQUAD4  304     1       233     262     263     234                             
                   59-        CQUAD4  305     1       234     263     264     235                             
                   60-        CQUAD4  306     1       235     264     265     236                             
                   61-        CQUAD4  307     1       236     265     266     237                             
                   62-        CQUAD4  308     1       237     266     267     238                             
                   63-        CQUAD4  309     1       238     267     54      55                              
                   64-        CQUAD4  310     1       25      2       26      239                             
                   65-        CQUAD4  311     1       239     26      27      240                             
                   66-        CQUAD4  312     1       240     27      28      241                             
                   67-        CQUAD4  313     1       241     28      29      242                             
                   68-        CQUAD4  314     1       242     29      30      243                             
                   69-        CQUAD4  315     1       243     30      31      244                             
                   70-        CQUAD4  316     1       244     31      32      245                             
                   71-        CQUAD4  317     1       245     32      33      246                             
                   72-        CQUAD4  318     1       246     33      34      247                             
                   73-        CQUAD4  319     1       247     34      35      248                             
                   74-        CQUAD4  320     1       248     35      36      249                             
                   75-        CQUAD4  321     1       249     36      37      250                             
                   76-        CQUAD4  322     1       250     37      38      251                             
                   77-        CQUAD4  323     1       251     38      39      252                             
                   78-        CQUAD4  324     1       252     39      40      253                             
                   79-        CQUAD4  325     1       253     40      41      254                             
                   80-        CQUAD4  326     1       254     41      42      255                             
                   81-        CQUAD4  327     1       255     42      43      256                             
                   82-        CQUAD4  328     1       256     43      44      257                             
                   83-        CQUAD4  329     1       257     44      45      258                             
                   84-        CQUAD4  330     1       258     45      46      259                             
                   85-        CQUAD4  331     1       259     46      47      260                             
                   86-        CQUAD4  332     1       260     47      48      261                             
                   87-        CQUAD4  333     1       261     48      49      262                             
                   88-        CQUAD4  334     1       262     49      50      263                             
                   89-        CQUAD4  335     1       263     50      51      264                             
                   90-        CQUAD4  336     1       264     51      52      265                             
                   91-        CQUAD4  337     1       265     52      17      266                             
                   92-        CQUAD4  338     1       266     17      53      267                             
                   93-        CQUAD4  339     1       267     53      4       54                              
                   94-        CQUAD4  340     2       5       85      268     162                             
1                                                                           /    95 INTEL LINUX NASTRAN    / JUN 17, 18 / PAGE     8
                                                                                                                                    

                                                                                                                                    

                                                  S O R T E D   B U L K    D A T A    E C H O                                       
                     CARD                                                                                                           
                     COUNT        ---1--- +++2+++ ---3--- +++4+++ ---5--- +++6+++ ---7--- +++8+++ ---9--- +++10+++                  
                   95-        CQUAD4  341     2       162     268     170     161                             
                   96-        CQUAD4  342     2       161     170     269     160                             
                   97-        CQUAD4  343     2       160     269     270     159                             
                   98-        CQUAD4  344     2       159     270     271     158                             
                   99-        CQUAD4  345     2       158     271     272     157                             
                  100-        CQUAD4  346     2       157     272     273     156                             
                  101-        CQUAD4  347     2       156     273     274     155                             
                  102-        CQUAD4  348     2       155     274     275     154                             
                  103-        CQUAD4  349     2       154     275     276     153                             
                  104-        CQUAD4  350     2       153     276     277     152                             
                  105-        CQUAD4  351     2       152     277     278     151                             
                  106-        CQUAD4  352     2       151     278     279     150                             
                  107-        CQUAD4  353     2       150     279     280     149                             
                  108-        CQUAD4  354     2       149     280     281     148                             
                  109-        CQUAD4  355     2       148     281     282     147                             
                  110-        CQUAD4  356     2       147     282     283     146                             
                  111-        CQUAD4  357     2       146     283     284     145                             
                  112-        CQUAD4  358     2       145     284     285     144                             
                  113-        CQUAD4  359     2       144     285     37      38                              
                  114-        CQUAD4  360     2       38      37      286     143                             
                  115-        CQUAD4  361     2       143     286     287     142                             
                  116-        CQUAD4  362     2       142     287     288     141                             
                  117-        CQUAD4  363     2       141     288     289     140                             
                  118-        CQUAD4  364     2       140     289     290     139                             
                  119-        CQUAD4  365     2       139     290     291     138                             
                  120-        CQUAD4  366     2       138     291     292     137                             
                  121-        CQUAD4  367     2       137     292     293     136                             
                  122-        CQUAD4  368     2       136     293     294     135                             
                  123-        CQUAD4  369     2       135     294     295     134                             
                  124-        CQUAD4  370     2       134     295     296     133                             
                  125-        CQUAD4  371     2       133     296     297     132                             
                  126-        CQUAD4  372     2       132     297     298     131                             
                  127-        CQUAD4  373     2       131     298     299     130                             
                  128-        CQUAD4  374     2       130     299     300     129                             
                  129-        CQUAD4  375     2       129     300     301     128                             
                  130-        CQUAD4  376     2       128     301     302     127                             
                  131-        CQUAD4  377     2       127     302     176     126                             
                  132-        CQUAD4  378     2       126     176     303     125                             
                  133-        CQUAD4  379     2       125     303     124     8                               
                  134-        CQUAD4  380     2       85      6       86      268                             
                  135-        CQUAD4  381     2       268     86      87      170                             
                  136-        CQUAD4  382     2       170     87      88      269                             
                  137-        CQUAD4  383     2       269     88      89      270                             
                  138-        CQUAD4  384     2       270     89      90      271                             
                  139-        CQUAD4  385     2       271     90      91      272                             
                  140-        CQUAD4  386     2       272     91      92      273                             
                  141-        CQUAD4  387     2       273     92      93      274                             
1                                                                           /    95 INTEL LINUX NASTRAN    / JUN 17, 18 / PAGE     9
                                                                                                                                    

                                                                                                                                    

                                                  S O R T E D   B U L K    D A T A    E C H O                                       
                     CARD                                                                                                           
                     COUNT        ---1--- +++2+++ ---3--- +++4+++ ---5--- +++6+++ ---7--- +++8+++ ---9--- +++10+++                  
                  142-        CQUAD4  388     2       274     93      94      275                             
                  143-        CQUAD4  389     2       275     94      95      276                             
                  144-        CQUAD4  390     2       276     95      96      277                             
                  145-        CQUAD4  391     2       277     96      97      278                             
                  146-        CQUAD4  392     2       278     97      98      279                             
                  147-        CQUAD4  393     2       279     98      99      280                             
                  148-        CQUAD4  394     2       280     99      100     281                             
                  149-        CQUAD4  395     2       281     100     101     282                             
                  150-        CQUAD4  396     2       282     101     102     283                             
                  151-        CQUAD4  397     2       283     102     103     284                             
                  152-        CQUAD4  398     2       284     103     104     285                             
                  153-        CQUAD4  399     2       285     104     36      37                              
                  154-        CQUAD4  400     2       37      36      105     286                             
                  155-        CQUAD4  401     2       286     105     106     287                             
                  156-        CQUAD4  402     2       287     106     107     288                             
                  157-        CQUAD4  403     2       288     107     108     289                             
                  158-        CQUAD4  404     2       289     108     109     290                             
                  159-        CQUAD4  405     2       290     109     110     291                             
                  160-        CQUAD4  406     2       291     110     111     292                             
                  161-        CQUAD4  407     2       292     111     112     293                             
                  162-        CQUAD4  408     2       293     112     113     294                             
                  163-        CQUAD4  409     2       294     113     114     295                             
                  164-        CQUAD4  410     2       295     114     115     296                             
                  165-        CQUAD4  411     2       296     115     116     297                             
                  166-        CQUAD4  412     2       297     116     117     298                             
                  167-        CQUAD4  413     2       298     117     118     299                             
                  168-        CQUAD4  414     2       299     118     119     300                             
                  169-        CQUAD4  415     2       300     119     120     301                             
                  170-        CQUAD4  416     2       301     120     121     302                             
                  171-        CQUAD4  417     2       302     121     122     176                             
                  172-        CQUAD4  418     2       176     122     123     303                             
                  173-        CQUAD4  419     2       303     123     7       124                             
                  174-        CQUAD4  420     3       9       163     304     173                             
                  175-        CQUAD4  421     3       173     304     172     12                              
                  176-        CQUAD4  422     3       163     164     305     304                             
                  177-        CQUAD4  423     3       304     305     171     172                             
                  178-        CQUAD4  424     3       164     5       162     305                             
                  179-        CQUAD4  425     3       305     162     161     171                             
                  180-        CQUAD4  426     3       5       85      268     162                             
                  181-        CQUAD4  427     3       162     268     170     161                             
                  182-        CQUAD4  428     3       85      6       86      268                             
                  183-        CQUAD4  429     3       268     86      87      170                             
                  184-        CQUAD4  430     3       6       165     306     86                              
                  185-        CQUAD4  431     3       86      306     169     87                              
                  186-        CQUAD4  432     3       165     166     307     306                             
                  187-        CQUAD4  433     3       306     307     168     169                             
                  188-        CQUAD4  434     3       166     10      167     307                             
1                                                                           /    95 INTEL LINUX NASTRAN    / JUN 17, 18 / PAGE    10
                                                                                                                                    

                                                                                                                                    

                                                  S O R T E D   B U L K    D A T A    E C H O                                       
                     CARD                                                                                                           
                     COUNT        ---1--- +++2+++ ---3--- +++4+++ ---5--- +++6+++ ---7--- +++8+++ ---9--- +++10+++                  
                  189-        CQUAD4  435     3       307     167     11      168                             
                  190-        CQUAD4  436     4       13      174     308     184                             
                  191-        CQUAD4  437     4       184     308     183     16                              
                  192-        CQUAD4  438     4       174     175     309     308                             
                  193-        CQUAD4  439     4       308     309     182     183                             
                  194-        CQUAD4  440     4       175     126     125     309                             
                  195-        CQUAD4  441     4       309     125     8       182                             
                  196-        CQUAD4  442     4       126     176     303     125                             
                  197-        CQUAD4  443     4       125     303     124     8                               
                  198-        CQUAD4  444     4       176     122     123     303                             
                  199-        CQUAD4  445     4       303     123     7       124                             
                  200-        CQUAD4  446     4       122     177     310     123                             
                  201-        CQUAD4  447     4       123     310     181     7                               
                  202-        CQUAD4  448     4       177     178     311     310                             
                  203-        CQUAD4  449     4       310     311     180     181                             
                  204-        CQUAD4  450     4       178     14      179     311                             
                  205-        CQUAD4  451     4       311     179     15      180                             
                  206-        CQUAD4  452     5       17      185     312     53                              
                  207-        CQUAD4  453     5       53      312     195     4                               
                  208-        CQUAD4  454     5       185     186     313     312                             
                  209-        CQUAD4  455     5       312     313     194     195                             
                  210-        CQUAD4  456     5       186     187     314     313                             
                  211-        CQUAD4  457     5       313     314     193     194                             
                  212-        CQUAD4  458     5       187     188     315     314                             
                  213-        CQUAD4  459     5       314     315     192     193                             
                  214-        CQUAD4  460     5       188     189     316     315                             
                  215-        CQUAD4  461     5       315     316     191     192                             
                  216-        CQUAD4  462     5       189     18      190     316                             
                  217-        CQUAD4  463     5       316     190     19      191                             
                  218-        CQUAD4  464     6       20      196     317     209                             
                  219-        CQUAD4  465     6       209     317     208     23                              
                  220-        CQUAD4  466     6       196     197     318     317                             
                  221-        CQUAD4  467     6       317     318     207     208                             
                  222-        CQUAD4  468     6       197     198     319     318                             
                  223-        CQUAD4  469     6       318     319     206     207                             
                  224-        CQUAD4  470     6       198     18      190     319                             
                  225-        CQUAD4  471     6       319     190     19      206                             
                  226-        CQUAD4  472     6       18      199     320     190                             
                  227-        CQUAD4  473     6       190     320     205     19                              
                  228-        CQUAD4  474     6       199     200     321     320                             
                  229-        CQUAD4  475     6       320     321     204     205                             
                  230-        CQUAD4  476     6       200     201     322     321                             
                  231-        CQUAD4  477     6       321     322     203     204                             
                  232-        CQUAD4  478     6       201     21      202     322                             
                  233-        CQUAD4  479     6       322     202     22      203                             
                  234-        EIGR    1       FEER    0.1                     10                      +C0N0001
                  235-        +C0N0001MAX                                                                     
1                                                                           /    95 INTEL LINUX NASTRAN    / JUN 17, 18 / PAGE    11
                                                                                                                                    

                                                                                                                                    

                                                  S O R T E D   B U L K    D A T A    E C H O                                       
                     CARD                                                                                                           
                     COUNT        ---1--- +++2+++ ---3--- +++4+++ ---5--- +++6+++ ---7--- +++8+++ ---9--- +++10+++                  
                  236-        GRID    1       0       0.00E+000.00E+000.00E+00                                
                  237-        GRID    2       0       0.00E+000.00E+00150.0000                                
                  238-        GRID    3       0       1500.0000.00E+000.00E+00                                
                  239-        GRID    4       0       1500.0000.00E+00150.0000                                
                  240-        GRID    5       0       650.00001000.000150.0000                                
                  241-        GRID    6       0       550.00001000.000150.0000                                
                  242-        GRID    7       0       550.0000-1000.00150.0000                                
                  243-        GRID    8       0       650.0000-1000.00150.0000                                
                  244-        GRID    9       0       800.00001000.000150.0000                                
                  245-        GRID    10      0       400.00001000.000150.0000                                
                  246-        GRID    11      0       400.0000900.0000150.0000                                
                  247-        GRID    12      0       800.0000900.0000150.0000                                
                  248-        GRID    13      0       800.0000-900.000150.0000                                
                  249-        GRID    14      0       400.0000-900.000150.0000                                
                  250-        GRID    15      0       400.0000-1000.00150.0000                                
                  251-        GRID    16      0       800.0000-1000.00150.0000                                
                  252-        GRID    17      0       1400.0000.00E+00150.0000                                
                  253-        GRID    18      0       1400.0000.00E+00450.0000                                
                  254-        GRID    19      0       1500.0000.00E+00450.0000                                
                  255-        GRID    20      0       1400.000200.0000450.0000                                
                  256-        GRID    21      0       1400.000-200.000450.0000                                
                  257-        GRID    22      0       1500.000-200.000450.0000                                
                  258-        GRID    23      0       1500.000200.0000450.0000                                
                  259-        GRID    24      0       0.00E+000.00E+0050.00000                                
                  260-        GRID    25      0       0.00E+000.00E+00100.0000                                
                  261-        GRID    26      0       50.000000.00E+00150.0000                                
                  262-        GRID    27      0       100.00000.00E+00150.0000                                
                  263-        GRID    28      0       150.00000.00E+00150.0000                                
                  264-        GRID    29      0       200.00000.00E+00150.0000                                
                  265-        GRID    30      0       250.00000.00E+00150.0000                                
                  266-        GRID    31      0       300.00000.00E+00150.0000                                
                  267-        GRID    32      0       350.00000.00E+00150.0000                                
                  268-        GRID    33      0       400.00000.00E+00150.0000                                
                  269-        GRID    34      0       450.00000.00E+00150.0000                                
                  270-        GRID    35      0       500.00000.00E+00150.0000                                
                  271-        GRID    36      0       550.00000.00E+00150.0000                                
                  272-        GRID    37      0       600.00000.00E+00150.0000                                
                  273-        GRID    38      0       650.00000.00E+00150.0000                                
                  274-        GRID    39      0       700.00000.00E+00150.0000                                
                  275-        GRID    40      0       750.00000.00E+00150.0000                                
                  276-        GRID    41      0       800.00000.00E+00150.0000                                
                  277-        GRID    42      0       850.00000.00E+00150.0000                                
                  278-        GRID    43      0       900.00000.00E+00150.0000                                
                  279-        GRID    44      0       950.00000.00E+00150.0000                                
                  280-        GRID    45      0       1000.0000.00E+00150.0000                                
                  281-        GRID    46      0       1050.0000.00E+00150.0000                                
                  282-        GRID    47      0       1100.0000.00E+00150.0000                                
1                                                                           /    95 INTEL LINUX NASTRAN    / JUN 17, 18 / PAGE    12
                                                                                                                                    

                                                                                                                                    

                                                  S O R T E D   B U L K    D A T A    E C H O                                       
                     CARD                                                                                                           
                     COUNT        ---1--- +++2+++ ---3--- +++4+++ ---5--- +++6+++ ---7--- +++8+++ ---9--- +++10+++                  
                  283-        GRID    48      0       1150.0000.00E+00150.0000                                
                  284-        GRID    49      0       1200.0000.00E+00150.0000                                
                  285-        GRID    50      0       1250.0000.00E+00150.0000                                
                  286-        GRID    51      0       1300.0000.00E+00150.0000                                
                  287-        GRID    52      0       1350.0000.00E+00150.0000                                
                  288-        GRID    53      0       1450.0000.00E+00150.0000                                
                  289-        GRID    54      0       1500.0000.00E+00100.0000                                
                  290-        GRID    55      0       1500.0000.00E+0050.00000                                
                  291-        GRID    56      0       1450.0000.00E+000.00E+00                                
                  292-        GRID    57      0       1400.0000.00E+000.00E+00                                
                  293-        GRID    58      0       1350.0000.00E+000.00E+00                                
                  294-        GRID    59      0       1300.0000.00E+000.00E+00                                
                  295-        GRID    60      0       1250.0000.00E+000.00E+00                                
                  296-        GRID    61      0       1200.0000.00E+000.00E+00                                
                  297-        GRID    62      0       1150.0000.00E+000.00E+00                                
                  298-        GRID    63      0       1100.0000.00E+000.00E+00                                
                  299-        GRID    64      0       1050.0000.00E+000.00E+00                                
                  300-        GRID    65      0       1000.0000.00E+000.00E+00                                
                  301-        GRID    66      0       950.00000.00E+000.00E+00                                
                  302-        GRID    67      0       900.00000.00E+000.00E+00                                
                  303-        GRID    68      0       850.00000.00E+000.00E+00                                
                  304-        GRID    69      0       800.00000.00E+000.00E+00                                
                  305-        GRID    70      0       750.00000.00E+000.00E+00                                
                  306-        GRID    71      0       700.00000.00E+000.00E+00                                
                  307-        GRID    72      0       650.00000.00E+000.00E+00                                
                  308-        GRID    73      0       600.00000.00E+000.00E+00                                
                  309-        GRID    74      0       550.00000.00E+000.00E+00                                
                  310-        GRID    75      0       500.00000.00E+000.00E+00                                
                  311-        GRID    76      0       450.00000.00E+000.00E+00                                
                  312-        GRID    77      0       400.00000.00E+000.00E+00                                
                  313-        GRID    78      0       350.00000.00E+000.00E+00                                
                  314-        GRID    79      0       300.00000.00E+000.00E+00                                
                  315-        GRID    80      0       250.00000.00E+000.00E+00                                
                  316-        GRID    81      0       200.00000.00E+000.00E+00                                
                  317-        GRID    82      0       150.00000.00E+000.00E+00                                
                  318-        GRID    83      0       100.00000.00E+000.00E+00                                
                  319-        GRID    84      0       50.000000.00E+000.00E+00                                
                  320-        GRID    85      0       600.00001000.000150.0000                                
                  321-        GRID    86      0       550.0000950.0000150.0000                                
                  322-        GRID    87      0       550.0000900.0000150.0000                                
                  323-        GRID    88      0       550.0000850.0000150.0000                                
                  324-        GRID    89      0       550.0000800.0000150.0000                                
                  325-        GRID    90      0       550.0000750.0000150.0000                                
                  326-        GRID    91      0       550.0000700.0000150.0000                                
                  327-        GRID    92      0       550.0000650.0000150.0000                                
                  328-        GRID    93      0       550.0000600.0000150.0000                                
                  329-        GRID    94      0       550.0000550.0000150.0000                                
1                                                                           /    95 INTEL LINUX NASTRAN    / JUN 17, 18 / PAGE    13
                                                                                                                                    

                                                                                                                                    

                                                  S O R T E D   B U L K    D A T A    E C H O                                       
                     CARD                                                                                                           
                     COUNT        ---1--- +++2+++ ---3--- +++4+++ ---5--- +++6+++ ---7--- +++8+++ ---9--- +++10+++                  
                  330-        GRID    95      0       550.0000500.0000150.0000                                
                  331-        GRID    96      0       550.0000450.0000150.0000                                
                  332-        GRID    97      0       550.0000400.0000150.0000                                
                  333-        GRID    98      0       550.0000350.0000150.0000                                
                  334-        GRID    99      0       550.0000300.0000150.0000                                
                  335-        GRID    100     0       550.0000250.0000150.0000                                
                  336-        GRID    101     0       550.0000200.0000150.0000                                
                  337-        GRID    102     0       550.0000150.0000150.0000                                
                  338-        GRID    103     0       550.0000100.0000150.0000                                
                  339-        GRID    104     0       550.000050.00000150.0000                                
                  340-        GRID    105     0       550.0000-50.0000150.0000                                
                  341-        GRID    106     0       550.0000-100.000150.0000                                
                  342-        GRID    107     0       550.0000-150.000150.0000                                
                  343-        GRID    108     0       550.0000-200.000150.0000                                
                  344-        GRID    109     0       550.0000-250.000150.0000                                
                  345-        GRID    110     0       550.0000-300.000150.0000                                
                  346-        GRID    111     0       550.0000-350.000150.0000                                
                  347-        GRID    112     0       550.0000-400.000150.0000                                
                  348-        GRID    113     0       550.0000-450.000150.0000                                
                  349-        GRID    114     0       550.0000-500.000150.0000                                
                  350-        GRID    115     0       550.0000-550.000150.0000                                
                  351-        GRID    116     0       550.0000-600.000150.0000                                
                  352-        GRID    117     0       550.0000-650.000150.0000                                
                  353-        GRID    118     0       550.0000-700.000150.0000                                
                  354-        GRID    119     0       550.0000-750.000150.0000                                
                  355-        GRID    120     0       550.0000-800.000150.0000                                
                  356-        GRID    121     0       550.0000-850.000150.0000                                
                  357-        GRID    122     0       550.0000-900.000150.0000                                
                  358-        GRID    123     0       550.0000-950.000150.0000                                
                  359-        GRID    124     0       600.0000-1000.00150.0000                                
                  360-        GRID    125     0       650.0000-950.000150.0000                                
                  361-        GRID    126     0       650.0000-900.000150.0000                                
                  362-        GRID    127     0       650.0000-850.000150.0000                                
                  363-        GRID    128     0       650.0000-800.000150.0000                                
                  364-        GRID    129     0       650.0000-750.000150.0000                                
                  365-        GRID    130     0       650.0000-700.000150.0000                                
                  366-        GRID    131     0       650.0000-650.000150.0000                                
                  367-        GRID    132     0       650.0000-600.000150.0000                                
                  368-        GRID    133     0       650.0000-550.000150.0000                                
                  369-        GRID    134     0       650.0000-500.000150.0000                                
                  370-        GRID    135     0       650.0000-450.000150.0000                                
                  371-        GRID    136     0       650.0000-400.000150.0000                                
                  372-        GRID    137     0       650.0000-350.000150.0000                                
                  373-        GRID    138     0       650.0000-300.000150.0000                                
                  374-        GRID    139     0       650.0000-250.000150.0000                                
                  375-        GRID    140     0       650.0000-200.000150.0000                                
                  376-        GRID    141     0       650.0000-150.000150.0000                                
1                                                                           /    95 INTEL LINUX NASTRAN    / JUN 17, 18 / PAGE    14
                                                                                                                                    

                                                                                                                                    

                                                  S O R T E D   B U L K    D A T A    E C H O                                       
                     CARD                                                                                                           
                     COUNT        ---1--- +++2+++ ---3--- +++4+++ ---5--- +++6+++ ---7--- +++8+++ ---9--- +++10+++                  
                  377-        GRID    142     0       650.0000-100.000150.0000                                
                  378-        GRID    143     0       650.0000-50.0000150.0000                                
                  379-        GRID    144     0       650.000050.00000150.0000                                
                  380-        GRID    145     0       650.0000100.0000150.0000                                
                  381-        GRID    146     0       650.0000150.0000150.0000                                
                  382-        GRID    147     0       650.0000200.0000150.0000                                
                  383-        GRID    148     0       650.0000250.0000150.0000                                
                  384-        GRID    149     0       650.0000300.0000150.0000                                
                  385-        GRID    150     0       650.0000350.0000150.0000                                
                  386-        GRID    151     0       650.0000400.0000150.0000                                
                  387-        GRID    152     0       650.0000450.0000150.0000                                
                  388-        GRID    153     0       650.0000500.0000150.0000                                
                  389-        GRID    154     0       650.0000550.0000150.0000                                
                  390-        GRID    155     0       650.0000600.0000150.0000                                
                  391-        GRID    156     0       650.0000650.0000150.0000                                
                  392-        GRID    157     0       650.0000700.0000150.0000                                
                  393-        GRID    158     0       650.0000750.0000150.0000                                
                  394-        GRID    159     0       650.0000800.0000150.0000                                
                  395-        GRID    160     0       650.0000850.0000150.0000                                
                  396-        GRID    161     0       650.0000900.0000150.0000                                
                  397-        GRID    162     0       650.0000950.0000150.0000                                
                  398-        GRID    163     0       750.00001000.000150.0000                                
                  399-        GRID    164     0       700.00001000.000150.0000                                
                  400-        GRID    165     0       500.00001000.000150.0000                                
                  401-        GRID    166     0       450.00001000.000150.0000                                
                  402-        GRID    167     0       400.0000950.0000150.0000                                
                  403-        GRID    168     0       450.0000900.0000150.0000                                
                  404-        GRID    169     0       500.0000900.0000150.0000                                
                  405-        GRID    170     0       600.0000900.0000150.0000                                
                  406-        GRID    171     0       700.0000900.0000150.0000                                
                  407-        GRID    172     0       750.0000900.0000150.0000                                
                  408-        GRID    173     0       800.0000950.0000150.0000                                
                  409-        GRID    174     0       750.0000-900.000150.0000                                
                  410-        GRID    175     0       700.0000-900.000150.0000                                
                  411-        GRID    176     0       600.0000-900.000150.0000                                
                  412-        GRID    177     0       500.0000-900.000150.0000                                
                  413-        GRID    178     0       450.0000-900.000150.0000                                
                  414-        GRID    179     0       400.0000-950.000150.0000                                
                  415-        GRID    180     0       450.0000-1000.00150.0000                                
                  416-        GRID    181     0       500.0000-1000.00150.0000                                
                  417-        GRID    182     0       700.0000-1000.00150.0000                                
                  418-        GRID    183     0       750.0000-1000.00150.0000                                
                  419-        GRID    184     0       800.0000-950.000150.0000                                
                  420-        GRID    185     0       1400.0000.00E+00200.0000                                
                  421-        GRID    186     0       1400.0000.00E+00250.0000                                
                  422-        GRID    187     0       1400.0000.00E+00300.0000                                
                  423-        GRID    188     0       1400.0000.00E+00350.0000                                
1                                                                           /    95 INTEL LINUX NASTRAN    / JUN 17, 18 / PAGE    15
                                                                                                                                    

                                                                                                                                    

                                                  S O R T E D   B U L K    D A T A    E C H O                                       
                     CARD                                                                                                           
                     COUNT        ---1--- +++2+++ ---3--- +++4+++ ---5--- +++6+++ ---7--- +++8+++ ---9--- +++10+++                  
                  424-        GRID    189     0       1400.0000.00E+00400.0000                                
                  425-        GRID    190     0       1450.0000.00E+00450.0000                                
                  426-        GRID    191     0       1500.0000.00E+00400.0000                                
                  427-        GRID    192     0       1500.0000.00E+00350.0000                                
                  428-        GRID    193     0       1500.0000.00E+00300.0000                                
                  429-        GRID    194     0       1500.0000.00E+00250.0000                                
                  430-        GRID    195     0       1500.0000.00E+00200.0000                                
                  431-        GRID    196     0       1400.000150.0000450.0000                                
                  432-        GRID    197     0       1400.000100.0000450.0000                                
                  433-        GRID    198     0       1400.00050.00000450.0000                                
                  434-        GRID    199     0       1400.000-50.0000450.0000                                
                  435-        GRID    200     0       1400.000-100.000450.0000                                
                  436-        GRID    201     0       1400.000-150.000450.0000                                
                  437-        GRID    202     0       1450.000-200.000450.0000                                
                  438-        GRID    203     0       1500.000-150.000450.0000                                
                  439-        GRID    204     0       1500.000-100.000450.0000                                
                  440-        GRID    205     0       1500.000-50.0000450.0000                                
                  441-        GRID    206     0       1500.00050.00000450.0000                                
                  442-        GRID    207     0       1500.000100.0000450.0000                                
                  443-        GRID    208     0       1500.000150.0000450.0000                                
                  444-        GRID    209     0       1450.000200.0000450.0000                                
                  445-        GRID    210     0       50.000000.00E+0050.00000                                
                  446-        GRID    211     0       100.00000.00E+0050.00000                                
                  447-        GRID    212     0       150.00000.00E+0050.00000                                
                  448-        GRID    213     0       200.00000.00E+0050.00000                                
                  449-        GRID    214     0       250.00000.00E+0050.00000                                
                  450-        GRID    215     0       300.00000.00E+0050.00000                                
                  451-        GRID    216     0       350.00000.00E+0050.00000                                
                  452-        GRID    217     0       400.00000.00E+0050.00000                                
                  453-        GRID    218     0       450.00000.00E+0050.00000                                
                  454-        GRID    219     0       500.00000.00E+0050.00000                                
                  455-        GRID    220     0       550.00000.00E+0050.00000                                
                  456-        GRID    221     0       600.00000.00E+0050.00000                                
                  457-        GRID    222     0       650.00000.00E+0050.00000                                
                  458-        GRID    223     0       700.00000.00E+0050.00000                                
                  459-        GRID    224     0       750.00000.00E+0050.00000                                
                  460-        GRID    225     0       800.00000.00E+0050.00000                                
                  461-        GRID    226     0       850.00000.00E+0050.00000                                
                  462-        GRID    227     0       900.00000.00E+0050.00000                                
                  463-        GRID    228     0       950.00000.00E+0050.00000                                
                  464-        GRID    229     0       1000.0000.00E+0050.00000                                
                  465-        GRID    230     0       1050.0000.00E+0050.00000                                
                  466-        GRID    231     0       1100.0000.00E+0050.00000                                
                  467-        GRID    232     0       1150.0000.00E+0050.00000                                
                  468-        GRID    233     0       1200.0000.00E+0050.00000                                
                  469-        GRID    234     0       1250.0000.00E+0050.00000                                
                  470-        GRID    235     0       1300.0000.00E+0050.00000                                
1                                                                           /    95 INTEL LINUX NASTRAN    / JUN 17, 18 / PAGE    16
                                                                                                                                    

                                                                                                                                    

                                                  S O R T E D   B U L K    D A T A    E C H O                                       
                     CARD                                                                                                           
                     COUNT        ---1--- +++2+++ ---3--- +++4+++ ---5--- +++6+++ ---7--- +++8+++ ---9--- +++10+++                  
                  471-        GRID    236     0       1350.0000.00E+0050.00000                                
                  472-        GRID    237     0       1400.0000.00E+0050.00000                                
                  473-        GRID    238     0       1450.0000.00E+0050.00000                                
                  474-        GRID    239     0       50.000000.00E+00100.0000                                
                  475-        GRID    240     0       100.00000.00E+00100.0000                                
                  476-        GRID    241     0       150.00000.00E+00100.0000                                
                  477-        GRID    242     0       200.00000.00E+00100.0000                                
                  478-        GRID    243     0       250.00000.00E+00100.0000                                
                  479-        GRID    244     0       300.00000.00E+00100.0000                                
                  480-        GRID    245     0       350.00000.00E+00100.0000                                
                  481-        GRID    246     0       400.00000.00E+00100.0000                                
                  482-        GRID    247     0       450.00000.00E+00100.0000                                
                  483-        GRID    248     0       500.00000.00E+00100.0000                                
                  484-        GRID    249     0       550.00000.00E+00100.0000                                
                  485-        GRID    250     0       600.00000.00E+00100.0000                                
                  486-        GRID    251     0       650.00000.00E+00100.0000                                
                  487-        GRID    252     0       700.00000.00E+00100.0000                                
                  488-        GRID    253     0       750.00000.00E+00100.0000                                
                  489-        GRID    254     0       800.00000.00E+00100.0000                                
                  490-        GRID    255     0       850.00000.00E+00100.0000                                
                  491-        GRID    256     0       900.00000.00E+00100.0000                                
                  492-        GRID    257     0       950.00000.00E+00100.0000                                
                  493-        GRID    258     0       1000.0000.00E+00100.0000                                
                  494-        GRID    259     0       1050.0000.00E+00100.0000                                
                  495-        GRID    260     0       1100.0000.00E+00100.0000                                
                  496-        GRID    261     0       1150.0000.00E+00100.0000                                
                  497-        GRID    262     0       1200.0000.00E+00100.0000                                
                  498-        GRID    263     0       1250.0000.00E+00100.0000                                
                  499-        GRID    264     0       1300.0000.00E+00100.0000                                
                  500-        GRID    265     0       1350.0000.00E+00100.0000                                
                  501-        GRID    266     0       1400.0000.00E+00100.0000                                
                  502-        GRID    267     0       1450.0000.00E+00100.0000                                
                  503-        GRID    268     0       600.0000950.0000150.0000                                
                  504-        GRID    269     0       600.0000850.0000150.0000                                
                  505-        GRID    270     0       600.0000800.0000150.0000                                
                  506-        GRID    271     0       600.0000750.0000150.0000                                
                  507-        GRID    272     0       600.0000700.0000150.0000                                
                  508-        GRID    273     0       600.0000650.0000150.0000                                
                  509-        GRID    274     0       600.0000600.0000150.0000                                
                  510-        GRID    275     0       600.0000550.0000150.0000                                
                  511-        GRID    276     0       600.0000500.0000150.0000                                
                  512-        GRID    277     0       600.0000450.0000150.0000                                
                  513-        GRID    278     0       600.0000400.0000150.0000                                
                  514-        GRID    279     0       600.0000350.0000150.0000                                
                  515-        GRID    280     0       600.0000300.0000150.0000                                
                  516-        GRID    281     0       600.0000250.0000150.0000                                
                  517-        GRID    282     0       600.0000200.0000150.0000                                
1                                                                           /    95 INTEL LINUX NASTRAN    / JUN 17, 18 / PAGE    17
                                                                                                                                    

                                                                                                                                    

                                                  S O R T E D   B U L K    D A T A    E C H O                                       
                     CARD                                                                                                           
                     COUNT        ---1--- +++2+++ ---3--- +++4+++ ---5--- +++6+++ ---7--- +++8+++ ---9--- +++10+++                  
                  518-        GRID    283     0       600.0000150.0000150.0000                                
                  519-        GRID    284     0       600.0000100.0000150.0000                                
                  520-        GRID    285     0       600.000050.00000150.0000                                
                  521-        GRID    286     0       600.0000-50.0000150.0000                                
                  522-        GRID    287     0       600.0000-100.000150.0000                                
                  523-        GRID    288     0       600.0000-150.000150.0000                                
                  524-        GRID    289     0       600.0000-200.000150.0000                                
                  525-        GRID    290     0       600.0000-250.000150.0000                                
                  526-        GRID    291     0       600.0000-300.000150.0000                                
                  527-        GRID    292     0       600.0000-350.000150.0000                                
                  528-        GRID    293     0       600.0000-400.000150.0000                                
                  529-        GRID    294     0       600.0000-450.000150.0000                                
                  530-        GRID    295     0       600.0000-500.000150.0000                                
                  531-        GRID    296     0       600.0000-550.000150.0000                                
                  532-        GRID    297     0       600.0000-600.000150.0000                                
                  533-        GRID    298     0       600.0000-650.000150.0000                                
                  534-        GRID    299     0       600.0000-700.000150.0000                                
                  535-        GRID    300     0       600.0000-750.000150.0000                                
                  536-        GRID    301     0       600.0000-800.000150.0000                                
                  537-        GRID    302     0       600.0000-850.000150.0000                                
                  538-        GRID    303     0       600.0000-950.000150.0000                                
                  539-        GRID    304     0       750.0000950.0000150.0000                                
                  540-        GRID    305     0       700.0000950.0000150.0000                                
                  541-        GRID    306     0       500.0000950.0000150.0000                                
                  542-        GRID    307     0       450.0000950.0000150.0000                                
                  543-        GRID    308     0       750.0000-950.000150.0000                                
                  544-        GRID    309     0       700.0000-950.000150.0000                                
                  545-        GRID    310     0       500.0000-950.000150.0000                                
                  546-        GRID    311     0       450.0000-950.000150.0000                                
                  547-        GRID    312     0       1450.0000.00E+00200.0000                                
                  548-        GRID    313     0       1450.0000.00E+00250.0000                                
                  549-        GRID    314     0       1450.0000.00E+00300.0000                                
                  550-        GRID    315     0       1450.0000.00E+00350.0000                                
                  551-        GRID    316     0       1450.0000.00E+00400.0000                                
                  552-        GRID    317     0       1450.000150.0000450.0000                                
                  553-        GRID    318     0       1450.000100.0000450.0000                                
                  554-        GRID    319     0       1450.00050.00000450.0000                                
                  555-        GRID    320     0       1450.000-50.0000450.0000                                
                  556-        GRID    321     0       1450.000-100.000450.0000                                
                  557-        GRID    322     0       1450.000-150.000450.0000                                
                  558-        MAT1    30      72000.          0.33    2.7E-6                                  
                  559-        PARAM   AUTOSPC 1                                                               
                  560-        PARAM   COUPMASS1                                                               
                  561-        PARAM   GRDPNT  0                                                               
                  562-        PARAM   WTMASS  0.001                                                           
                  563-        PSHELL  1       30      50.     30              30                              
                  564-        PSHELL  2       30      11.     30              30                              
1                                                                           /    95 INTEL LINUX NASTRAN    / JUN 17, 18 / PAGE    18
                                                                                                                                    

                                                                                                                                    

                                                  S O R T E D   B U L K    D A T A    E C H O                                       
                     CARD                                                                                                           
                     COUNT        ---1--- +++2+++ ---3--- +++4+++ ---5--- +++6+++ ---7--- +++8+++ ---9--- +++10+++                  
                  565-        PSHELL  3       30      10.     30              30                              
                  566-        PSHELL  4       30      10.     30              30                              
                  567-        PSHELL  5       30      10.     30              30                              
                  568-        PSHELL  6       30      10.     30              30                              
                              ENDDATA
[...]
0*** USER INFORMATION MESSAGE 3113,
     EMG MODULE PROCESSING DOUBLE PRECISION QUAD4    ELEMENTS (ELEMENT TYPE  64) STARTING WITH ID      250
0*** USER WARNING MESSAGE 3041
0EXTERNAL GRID POINT        0 DOES NOT EXIST OR IS NOT A GEOMETRIC GRID POINT.
     THE BASIC ORIGIN WILL BE USED.
1                                                                           /    95 INTEL LINUX NASTRAN    / JUN 17, 18 / PAGE    21
                                                                                                                                    
0                                                                                                                                   
 
 
                           O U T P U T   F R O M   G R I D   P O I N T   W E I G H T   G E N E R A T O R
0                                                     REFERENCE POINT =        0
 
 
                                     MO - RIGID BODY MASS MATRIX IN BASIC COORDINATE SYSTEM
                ***                                                                                             ***
                *  4.12650014D+01  0.00000000D+00  0.00000000D+00  0.00000000D+00  4.50712515D+03 -3.39572104D-13 *
                *  0.00000000D+00  4.12650014D+01  0.00000000D+00 -4.50712515D+03  0.00000000D+00  3.13467511D+04 *
                *  0.00000000D+00  0.00000000D+00  4.12650014D+01  3.39572104D-13 -3.13467511D+04  0.00000000D+00 *
                *  0.00000000D+00 -4.50712515D+03  6.61796975D-13  5.12458767D+06 -2.16715524D-10 -3.85689387D+06 *
                *  4.50712515D+03  0.00000000D+00 -3.13467511D+04 -2.22044594D-10  3.17195386D+07 -1.04805049D-10 *
                * -6.61796975D-13  3.13467511D+04  0.00000000D+00 -3.85689387D+06 -8.39328567D-11  3.52081512D+07 *
                ***                                                                                             ***
                                        S - TRANSFORMATION MATRIX FOR SCALAR MASS PARTITION
                                        ***                                             ***
                                        *  1.00000000D+00  0.00000000D+00  0.00000000D+00 *
                                        *  0.00000000D+00  1.00000000D+00  0.00000000D+00 *
                                        *  0.00000000D+00  0.00000000D+00  1.00000000D+00 *
                                        ***                                             ***
                         DIRECTION
                    MASS AXIS SYSTEM (S)       MASS                 X-C.G.           Y-C.G.           Z-C.G.
                            X            4.126500143D+01      0.000000000D+00  8.229058342D-15  1.092239184D+02
                            Y            4.126500143D+01      7.596449773D+02  0.000000000D+00  1.092239184D+02
                            Z            4.126500143D+01      7.596449773D+02  8.229058342D-15  0.000000000D+00

                                                 I(S) - INERTIAS RELATIVE TO C.G. 
                                      ***                                                 ***
                                      *  4.632301800D+06 -4.123871935D-11  4.330788916D+05  *
                                      * -4.123871935D-11  7.414850696D+06  6.771565273D-11  *
                                      *  4.330788916D+05  6.771565273D-11  1.139574919D+07  *
                                      ***                                                 ***
                                                      I(Q) - PRINCIPAL INERTIAS
                                      ***                                                 ***
                                      *  4.604683554D+06                                    *
                                      *                   7.414850696D+06                   *
                                      *                                    1.142336743D+07  *
                                      ***                                                 ***
                                            Q - TRANSFORMATION MATRIX - I(Q) = QT*I(S)*Q
                                      ***                                                 ***
                                      *  9.979727562D-01  0.000000000D+00  6.364257960D-02  *
                                      *  0.000000000D+00  1.000000000D+00  0.000000000D+00  *
                                      * -6.364257960D-02  0.000000000D+00  9.979727562D-01  *
                                      ***                                                 ***
0*** USER INFORMATION MESSAGE 2435, AT USER'S REQUEST, ALL POTENTIAL SINGULARITIES HAVE BEEN REMOVED BY THE
     APPLICATION OF SINGLE POINT CONSTRAINTS.  REFER TO PRINTOUT OF AUTOMATICALLY GENERATED SPC1 CARDS FOR DETAILS.
1                                                                           /    95 INTEL LINUX NASTRAN    / JUN 17, 18 / PAGE    22
                                                                                                                                    
0                                                                                                                                   


                                A U T O M A T I C A L L Y   G E N E R A T E D   S P C 1   C A R D S
                CARD 
                COUNT        ---1--- +++2+++ ---3--- +++4+++ ---5--- +++6+++ ---7--- +++8+++ ---9--- +++10+++

                   1-        SPC1           1       5       1       2       3       4      17      24
                   2-        SPC1           1       5      25      26      27      28      29      30
                   3-        SPC1           1       5      31      32      33      34      35      39
                   4-        SPC1           1       5      40      41      42      43      44      45
                   5-        SPC1           1       5      46      47      48      49      50      51
                   6-        SPC1           1       5      52      53      54      55      56      57
                   7-        SPC1           1       5      58      59      60      61      62      63
                   8-        SPC1           1       5      64      65      66      67      68      69
                   9-        SPC1           1       5      70      71      72      73      74      75
                  10-        SPC1           1       5      76      77      78      79      80      81
                  11-        SPC1           1       5      82      83      84     185     186     187
                  12-        SPC1           1       5     188     189     191     192     193     194
                  13-        SPC1           1       5     195     210     211     212     213     214
                  14-        SPC1           1       5     215     216     217     218     219     220
                  15-        SPC1           1       5     221     222     223     224     225     226
                  16-        SPC1           1       5     227     228     229     230     231     232
                  17-        SPC1           1       5     233     234     235     236     237     238
                  18-        SPC1           1       5     239     240     241     242     243     244
                  19-        SPC1           1       5     245     246     247     248     249     250
                  20-        SPC1           1       5     251     252     253     254     255     256
                  21-        SPC1           1       5     257     258     259     260     261     262
                  22-        SPC1           1       5     263     264     265     266     267     312
                  23-        SPC1           1       5     313     314     315     316
                  24-        SPC1           1       6       5       6       7       8       9      10
                  25-        SPC1           1       6      11      12      13      14      15      16
                  26-        SPC1           1       6      20      21      22      23      85      86
                  27-        SPC1           1       6      87      88      89      90      91      92
                  28-        SPC1           1       6      93      94      95      96      97      98
                  29-        SPC1           1       6      99     100     101     102     103     104
                  30-        SPC1           1       6     105     106     107     108     109     110
                  31-        SPC1           1       6     111     112     113     114     115     116
                  32-        SPC1           1       6     117     118     119     120     121     122
                  33-        SPC1           1       6     123     124     125     126     127     128
                  34-        SPC1           1       6     129     130     131     132     133     134
                  35-        SPC1           1       6     135     136     137     138     139     140
                  36-        SPC1           1       6     141     142     143     144     145     146
                  37-        SPC1           1       6     147     148     149     150     151     152
                  38-        SPC1           1       6     153     154     155     156     157     158
                  39-        SPC1           1       6     159     160     161     162     163     164
                  40-        SPC1           1       6     165     166     167     168     169     170
                  41-        SPC1           1       6     171     172     173     174     175     176
                  42-        SPC1           1       6     177     178     179     180     181     182
                  43-        SPC1           1       6     183     184     196     197     198     199
                  44-        SPC1           1       6     200     201     202     203     204     205
                  45-        SPC1           1       6     206     207     208     209     268     269
                  46-        SPC1           1       6     270     271     272     273     274     275
1                                                                           /    95 INTEL LINUX NASTRAN    / JUN 17, 18 / PAGE    23
                                                                                                                                    
0                                                                                                                                   


                                A U T O M A T I C A L L Y   G E N E R A T E D   S P C 1   C A R D S
                CARD 
                COUNT        ---1--- +++2+++ ---3--- +++4+++ ---5--- +++6+++ ---7--- +++8+++ ---9--- +++10+++

                  47-        SPC1           1       6     276     277     278     279     280     281
                  48-        SPC1           1       6     282     283     284     285     286     287
                  49-        SPC1           1       6     288     289     290     291     292     293
                  50-        SPC1           1       6     294     295     296     297     298     299
                  51-        SPC1           1       6     300     301     302     303     304     305
                  52-        SPC1           1       6     306     307     308     309     310     311
                  53-        SPC1           1       6     317     318     319     320     321     322
                        6 ROOTS BELOW   3.947842E-01
0*** USER WARNING MESSAGE 2399
     ONLY THE FIRST   20 EIGENSOLUTIONS CLOSEST TO THE SHIFT POINT (F1 OR ZERO) PASS THE FEER ACCURACY TEST FOR EIGENVECTORS.
1                                                                           /    95 INTEL LINUX NASTRAN    / JUN 17, 18 / PAGE    24
                                                                                                                                    

                                                                                                                                    




0*** USER INFORMATION MESSAGE 2392
       20 MORE ACCURATE EIGENSOLUTIONS THAN THE   10 REQUESTED HAVE BEEN FOUND.
     USE DIAG 16 TO DETERMINE ERROR BOUNDS
1                                                                           /    95 INTEL LINUX NASTRAN    / JUN 17, 18 / PAGE    25
                                                                                                                                    
0                                                                                                                                   
 
 
                              E I G E N V A L U E   A N A L Y S I S   S U M M A R Y         (FEER METHOD)
0
0                                       NUMBER OF EIGENVALUES EXTRACTED  . . . . . .        30
0                                       NUMBER OF STARTING POINTS USED . . . . . . .         1
0                                       NUMBER OF STARTING POINT MOVES . . . . . . .         0
0                                       NUMBER OF TRIANGULAR DECOMPOSITIONS  . . . .         1
0                                       TOTAL NUMBER OF VECTOR ITERATIONS  . . . . .        47

0                                       REASON FOR TERMINATION . . . . . . . . . . .         0*

0                                       LARGEST OFF-DIAGONAL MODAL MASS TERM . . . .  0.00E+00
0                                                                              . . .         0
                                                  MODE PAIR . . . . . . . . . .
                                                                               . . .         0
0                                       NUMBER OF OFF-DIAGONAL MODAL MASS
                                             TERMS FAILING CRITERION . . . . . . . .         0

0                                       (* NORMAL TERMINATION              
                                         SEE NASTRAN U.M. VOL II, SECTION 2.3.3)
1                                                                           /    95 INTEL LINUX NASTRAN    / JUN 17, 18 / PAGE    26
                                                                                                                                    
0                                                                                                                                   
 
                                              R E A L   E I G E N V A L U E S

   MODE    EXTRACTION       EIGENVALUE            RADIAN              CYCLIC           GENERALIZED         GENERALIZED
    NO.       ORDER                              FREQUENCY           FREQUENCY            MASS              STIFFNESS


                                     ****************************************************************
                                     *                                                              *
                                     *
+                                             NASTRAN INFORMATION MESSAGE 3307, POTENTIALLY         *
                                     *         6 EIGENVALUE(S) AT LOW FREQ. END NOT FOUND           *
                                     *                                                              *
                                     *        (THIS MESSAGE CAN BE SUPPRESSED BY DIAG 37)           *
                                     ****************************************************************

        1         6       -1.314316E-06        1.146436E-03        1.824610E-04        3.350822E-02       -4.404037E-08             
        2         5        7.437920E-08        2.727255E-04        4.340561E-05        6.243382E-03        4.643777E-10             
        3         4        3.911707E-07        6.254364E-04        9.954130E-05        1.595472E-02        6.241021E-09             
        4         3        4.246046E-07        6.516169E-04        1.037080E-04        1.388789E-02        5.896862E-09             
        5         2        1.276420E-06        1.129788E-03        1.798113E-04        2.086868E-02        2.663719E-08             
        6         1        2.082450E-06        1.443070E-03        2.296716E-04        3.319590E-02        6.912878E-08             
        7         7        1.600212E+03        4.000265E+01        6.366620E+00        3.826903E-03        6.123857E+00             
        8         8        1.184033E+04        1.088133E+02        1.731817E+01        3.478106E-03        4.118191E+01             
        9         9        6.117933E+04        2.473446E+02        3.936611E+01        3.918265E-03        2.397168E+02             
       10        10        8.359091E+04        2.891209E+02        4.601503E+01        7.478235E-04        6.251125E+01             
       11        11        8.383071E+04        2.895353E+02        4.608098E+01        7.363447E-04        6.172830E+01             
       12        12        9.760591E+04        3.124195E+02        4.972310E+01        2.737616E-03        2.672076E+02             
       13        13        1.078560E+05        3.284144E+02        5.226877E+01        7.355582E-03        7.933436E+02             
       14        14        1.283196E+05        3.582173E+02        5.701205E+01        4.057126E-03        5.206090E+02             
       15        15        2.009466E+05        4.482706E+02        7.134448E+01        1.810256E-03        3.637646E+02             
       16        16        2.101422E+05        4.584127E+02        7.295864E+01        3.964909E-04        8.331947E+01             
       17        17        4.400133E+05        6.633350E+02        1.055730E+02        1.209724E-03        5.322947E+02             
       18        18        7.135491E+05        8.447183E+02        1.344411E+02        1.236543E-03        8.823339E+02             
       19        19        8.740348E+05        9.348983E+02        1.487937E+02        2.529178E-03        2.210589E+03             
       20        20        1.010321E+06        1.005147E+03        1.599742E+02        3.690236E-03        3.728324E+03             
       21        21        1.827235E+06        1.351753E+03        2.151381E+02        3.112069E-04        5.686481E+02             
       22        22        2.245457E+06        1.498485E+03        2.384913E+02        1.466385E-03        3.292705E+03             
       23        23        3.474474E+06        1.863994E+03        2.966639E+02        4.163069E-03        1.446447E+04             
       24        24        3.615424E+06        1.901427E+03        3.026215E+02        1.388244E-03        5.019092E+03             
       25        25        4.968158E+06        2.228937E+03        3.547462E+02        2.071549E-04        1.029178E+03             
       26        26        5.841480E+06        2.416915E+03        3.846640E+02        1.723664E-03        1.006875E+04             
       27        27        1.045666E+07        3.233676E+03        5.146555E+02        1.326600E-03        1.387180E+04             
       28        28        1.900746E+07        4.359755E+03        6.938765E+02        2.452158E-03        4.660929E+04             
       29        29        3.424056E+07        5.851543E+03        9.313019E+02        2.325517E-03        7.962701E+04             
       30        30        1.754036E+08        1.324400E+04        2.107848E+03        4.535415E-04        7.955281E+04             




                                        * * * END OF JOB * * *
1
 JOB TITLE =                                                                     
 DATE:  6/17/18
 END TIME: 19:36:18
 TOTAL WALL CLOCK TIME      0 SEC.
 
